<?xml version="1.0" encoding="UTF-8"?>
<!-- generated on 2020-01-20 09:15:07.800690 by $Id$
  options: -n map.net.xml -l -e 600 -o map.trips.xml
-->
<routes xmlns:xsi="http://www.w3.org/2001/XMLSchema-instance" xsi:noNamespaceSchemaLocation="http://sumo.dlr.de/xsd/routes_file.xsd">
    <trip id="0" depart="0.00" from="658496142" to="560443105#0"/>
    <trip id="1" depart="1.00" from="741889711" to="392562026#1"/>
    <trip id="2" depart="2.00" from="552386881#1" to="-609470780#2"/>
    <trip id="3" depart="3.00" from="-443816444#0" to="-598343927"/>
    <trip id="4" depart="4.00" from="532202969" to="-609470780#2"/>
    <trip id="5" depart="5.00" from="-617108586#0" to="606767399#1"/>
    <trip id="6" depart="6.00" from="532202969" to="121014197#1"/>
    <trip id="7" depart="7.00" from="-558683330" to="-554903288"/>
    <trip id="8" depart="8.00" from="680645765#1" to="558512739"/>
    <trip id="9" depart="9.00" from="443816426#0" to="539824243#1"/>
    <trip id="10" depart="10.00" from="-556417125#2" to="392558767#0"/>
    <trip id="11" depart="11.00" from="-602094473#1" to="564713179"/>
    <trip id="12" depart="12.00" from="189013568#1" to="539946898#1"/>
    <trip id="13" depart="13.00" from="-603453258#0" to="643909360"/>
    <trip id="14" depart="14.00" from="-541865464" to="26402545#0"/>
    <trip id="15" depart="15.00" from="-609470788#2" to="561713616#2"/>
    <trip id="16" depart="16.00" from="-561713624" to="-604675621#1"/>
    <trip id="17" depart="17.00" from="556421923#2" to="601300667#0"/>
    <trip id="18" depart="18.00" from="540179310#7" to="551186303#1"/>
    <trip id="19" depart="19.00" from="599339670#0" to="743601168#1"/>
    <trip id="20" depart="20.00" from="-617108590#3" to="-589479627#1"/>
    <trip id="21" depart="21.00" from="392569895" to="-526765531#0"/>
    <trip id="22" depart="22.00" from="175864729" to="540410402"/>
    <trip id="23" depart="23.00" from="540409029" to="-631212268#0"/>
    <trip id="24" depart="24.00" from="743625753#0" to="216397531#1"/>
    <trip id="25" depart="25.00" from="-561713635#1" to="-606591198#1"/>
    <trip id="26" depart="26.00" from="594827842" to="576755457#1"/>
    <trip id="27" depart="27.00" from="552386876" to="558682946#1"/>
    <trip id="28" depart="28.00" from="551922543#1" to="-443816420#1"/>
    <trip id="29" depart="29.00" from="-603971751" to="560443113#5"/>
    <trip id="30" depart="30.00" from="178457275" to="-526765531#0"/>
    <trip id="31" depart="31.00" from="154090765#0" to="599669749#7"/>
    <trip id="32" depart="32.00" from="392569900#0" to="601230400#1"/>
    <trip id="33" depart="33.00" from="-189538901" to="594412633#0"/>
    <trip id="34" depart="34.00" from="-743601169#1" to="217382398#0"/>
    <trip id="35" depart="35.00" from="-741889706#1" to="-609470789"/>
    <trip id="36" depart="36.00" from="558512739" to="548984860#2"/>
    <trip id="37" depart="37.00" from="-557853467#0" to="-589626879"/>
    <trip id="38" depart="38.00" from="537110672#0" to="633834198#0"/>
    <trip id="39" depart="39.00" from="541331021#4" to="550654505#2"/>
    <trip id="40" depart="40.00" from="563029797#1" to="-558682945"/>
    <trip id="41" depart="41.00" from="-633834198#1" to="93604566"/>
    <trip id="42" depart="42.00" from="175679344" to="603714693#1"/>
    <trip id="43" depart="43.00" from="-558682945" to="591600454#3"/>
    <trip id="44" depart="44.00" from="552614806#4" to="556302727"/>
    <trip id="45" depart="45.00" from="566266168" to="547083821#3"/>
    <trip id="46" depart="46.00" from="621195943#3" to="550654505#1"/>
    <trip id="47" depart="47.00" from="617730596#0" to="603189931#2"/>
    <trip id="48" depart="48.00" from="558689263#2" to="-558682946#0"/>
    <trip id="49" depart="49.00" from="351662556#1" to="217382382"/>
    <trip id="50" depart="50.00" from="686247118#1" to="540397312"/>
    <trip id="51" depart="51.00" from="-549689926" to="551922543#1"/>
    <trip id="52" depart="52.00" from="189011419#4" to="591600454#3"/>
    <trip id="53" depart="53.00" from="-154084106" to="539995986#4"/>
    <trip id="54" depart="54.00" from="743601162" to="-746288823"/>
    <trip id="55" depart="55.00" from="539818670#2" to="-541273001#1"/>
    <trip id="56" depart="56.00" from="-443816426#0" to="32803886#2"/>
    <trip id="57" depart="57.00" from="570310647#0" to="-526765525"/>
    <trip id="58" depart="58.00" from="121014197#1" to="558398013#0"/>
    <trip id="59" depart="59.00" from="-631212270" to="552386883#1"/>
    <trip id="60" depart="60.00" from="599669749#7" to="175868077#3"/>
    <trip id="61" depart="61.00" from="189023844#0" to="556421935#0"/>
    <trip id="62" depart="62.00" from="554028140#1" to="39518900#2"/>
    <trip id="63" depart="63.00" from="537110672#2" to="556409445#0"/>
    <trip id="64" depart="64.00" from="554377918#1" to="550654505#1"/>
    <trip id="65" depart="65.00" from="-571515217#0" to="554377918#7"/>
    <trip id="66" depart="66.00" from="602084138#1" to="385032674"/>
    <trip id="67" depart="67.00" from="599669787" to="609218436#1"/>
    <trip id="68" depart="68.00" from="-160200271#5" to="443628797"/>
    <trip id="69" depart="69.00" from="-743601132#0" to="602084260"/>
    <trip id="70" depart="70.00" from="603189923#0" to="-603453260#0"/>
    <trip id="71" depart="71.00" from="-604447549#1" to="-159802214"/>
    <trip id="72" depart="72.00" from="743592737#3" to="-633834200"/>
    <trip id="73" depart="73.00" from="603453294#5" to="564713179"/>
    <trip id="74" depart="74.00" from="620105524" to="646724190#1"/>
    <trip id="75" depart="75.00" from="-561713616#2" to="-554903299#1"/>
    <trip id="76" depart="76.00" from="-565741667" to="540716668#1"/>
    <trip id="77" depart="77.00" from="577789899#1" to="540409025#0"/>
    <trip id="78" depart="78.00" from="-678881538" to="526765531#2"/>
    <trip id="79" depart="79.00" from="599339670#0" to="746320703#2"/>
    <trip id="80" depart="80.00" from="188224839#0" to="598343934#6"/>
    <trip id="81" depart="81.00" from="-526765525" to="621875040#3"/>
    <trip id="82" depart="82.00" from="549158781#1" to="-154084477#1"/>
    <trip id="83" depart="83.00" from="-633834202" to="-601654019"/>
    <trip id="84" depart="84.00" from="-597237650#1" to="-545472768#0"/>
    <trip id="85" depart="85.00" from="-40970778#3" to="746320701"/>
    <trip id="86" depart="86.00" from="188224839#1" to="-610239580#2"/>
    <trip id="87" depart="87.00" from="599339670#0" to="-651979189#1"/>
    <trip id="88" depart="88.00" from="548993008" to="-176024443#1"/>
    <trip id="89" depart="89.00" from="597237650#1" to="-188219974#3"/>
    <trip id="90" depart="90.00" from="-540409031" to="154089062#1"/>
    <trip id="91" depart="91.00" from="376029772#3" to="549742994#0"/>
    <trip id="92" depart="92.00" from="39727380#1" to="603971736#1"/>
    <trip id="93" depart="93.00" from="200166426#5" to="663505420#0"/>
    <trip id="94" depart="94.00" from="39468506#2" to="540716674"/>
    <trip id="95" depart="95.00" from="62005607#2" to="216397533#2"/>
    <trip id="96" depart="96.00" from="-589626882#0" to="-743601162"/>
    <trip id="97" depart="97.00" from="121014197#1" to="539946890"/>
    <trip id="98" depart="98.00" from="580009232" to="-537110657#2"/>
    <trip id="99" depart="99.00" from="194423753" to="188209345#2"/>
    <trip id="100" depart="100.00" from="175868077#0" to="-602084184"/>
    <trip id="101" depart="101.00" from="566266160#2" to="-443816443#1"/>
    <trip id="102" depart="102.00" from="602084205#0" to="26402545#3"/>
    <trip id="103" depart="103.00" from="571515219" to="526765531#2"/>
    <trip id="104" depart="104.00" from="-351662556#2" to="-566266148"/>
    <trip id="105" depart="105.00" from="545478678#2" to="-609470778#0"/>
    <trip id="106" depart="106.00" from="40970797#3" to="-609470780#0"/>
    <trip id="107" depart="107.00" from="-526765531#2" to="188219967#1"/>
    <trip id="108" depart="108.00" from="175600492#0" to="-576755457#0"/>
    <trip id="109" depart="109.00" from="601654031#1" to="-570678785"/>
    <trip id="110" depart="110.00" from="-554903298#0" to="558682949#0"/>
    <trip id="111" depart="111.00" from="561713618#1" to="552614807#6"/>
    <trip id="112" depart="112.00" from="188219969#0" to="549667573#0"/>
    <trip id="113" depart="113.00" from="741889701" to="-539755149#5"/>
    <trip id="114" depart="114.00" from="603971755" to="597813365"/>
    <trip id="115" depart="115.00" from="560443113#5" to="558679213#1"/>
    <trip id="116" depart="116.00" from="687001615#6" to="542080057#1"/>
    <trip id="117" depart="117.00" from="-606745311#0" to="621195943#1"/>
    <trip id="118" depart="118.00" from="-743601132#0" to="-443628791"/>
    <trip id="119" depart="119.00" from="443816444#0" to="217840248#9"/>
    <trip id="120" depart="120.00" from="549354517#0" to="-532202972"/>
    <trip id="121" depart="121.00" from="188219972" to="-732056354"/>
    <trip id="122" depart="122.00" from="-565741667" to="-644572703"/>
    <trip id="123" depart="123.00" from="-537110672#2" to="189011416"/>
    <trip id="124" depart="124.00" from="39517916#4" to="554506013#4"/>
    <trip id="125" depart="125.00" from="599339670#0" to="-194423757"/>
    <trip id="126" depart="126.00" from="548992986#2" to="565741673"/>
    <trip id="127" depart="127.00" from="210719311#0" to="217853197#1"/>
    <trip id="128" depart="128.00" from="644946329" to="621195943#2"/>
    <trip id="129" depart="129.00" from="539818659" to="746320702#1"/>
    <trip id="130" depart="130.00" from="570310641" to="631212203"/>
    <trip id="131" depart="131.00" from="91850704#0" to="-732057195#0"/>
    <trip id="132" depart="132.00" from="39520259#0" to="392562021#1"/>
    <trip id="133" depart="133.00" from="537110672#2" to="546352430#0"/>
    <trip id="134" depart="134.00" from="-603971740" to="-609470776"/>
    <trip id="135" depart="135.00" from="732057195#0" to="565741672"/>
    <trip id="136" depart="136.00" from="685257704" to="-537055395#1"/>
    <trip id="137" depart="137.00" from="-603189955#2" to="177137051#3"/>
    <trip id="138" depart="138.00" from="556421918#0" to="-702415879#0"/>
    <trip id="139" depart="139.00" from="-743601169#1" to="602084171"/>
    <trip id="140" depart="140.00" from="558398019#1" to="-351662558"/>
    <trip id="141" depart="141.00" from="558398108#0" to="603189968#0"/>
    <trip id="142" depart="142.00" from="558398007#2" to="526765531#2"/>
    <trip id="143" depart="143.00" from="443816420#1" to="-598343930"/>
    <trip id="144" depart="144.00" from="-351662557" to="217382398#0"/>
    <trip id="145" depart="145.00" from="39468503#1" to="617108562"/>
    <trip id="146" depart="146.00" from="-541868472#1" to="546352420"/>
    <trip id="147" depart="147.00" from="177137051#2" to="643906437#1"/>
    <trip id="148" depart="148.00" from="603204809#2" to="443816437#2"/>
    <trip id="149" depart="149.00" from="570678817" to="558676975#0"/>
    <trip id="150" depart="150.00" from="189011403" to="663505424"/>
    <trip id="151" depart="151.00" from="188209345#2" to="40970797#2"/>
    <trip id="152" depart="152.00" from="475911650#3" to="-702415903"/>
    <trip id="153" depart="153.00" from="300745777#0" to="392561566#1"/>
    <trip id="154" depart="154.00" from="-591963132#3" to="602084163"/>
    <trip id="155" depart="155.00" from="-194568388#1" to="540432824#3"/>
    <trip id="156" depart="156.00" from="188224839#0" to="282677002#3"/>
    <trip id="157" depart="157.00" from="681882246" to="93604566"/>
    <trip id="158" depart="158.00" from="258743271#4" to="552386881#0"/>
    <trip id="159" depart="159.00" from="177137051#2" to="39468503#1"/>
    <trip id="160" depart="160.00" from="702415930#0" to="557853475#2"/>
    <trip id="161" depart="161.00" from="539824241#1" to="554028140#1"/>
    <trip id="162" depart="162.00" from="189011421" to="134459284#1"/>
    <trip id="163" depart="163.00" from="175551645" to="602084158"/>
    <trip id="164" depart="164.00" from="443816407#0" to="680645394#0"/>
    <trip id="165" depart="165.00" from="697802499#1" to="178457275"/>
    <trip id="166" depart="166.00" from="282460813#0" to="548993008"/>
    <trip id="167" depart="167.00" from="558250871#1" to="-351662559#0"/>
    <trip id="168" depart="168.00" from="300746713" to="560443113#3"/>
    <trip id="169" depart="169.00" from="554377912#4" to="-539824262#0"/>
    <trip id="170" depart="170.00" from="-697802498" to="-633842523#1"/>
    <trip id="171" depart="171.00" from="557684587" to="702415929#0"/>
    <trip id="172" depart="172.00" from="526765531#0" to="537055388#4"/>
    <trip id="173" depart="173.00" from="-558398019#1" to="561713616#2"/>
    <trip id="174" depart="174.00" from="-558689267#12" to="-594827850"/>
    <trip id="175" depart="175.00" from="681848870" to="-540409026#0"/>
    <trip id="176" depart="176.00" from="175591216" to="32803886#1"/>
    <trip id="177" depart="177.00" from="565741661" to="537116103#1"/>
    <trip id="178" depart="178.00" from="121014197#0" to="-609470780#0"/>
    <trip id="179" depart="179.00" from="558728894#0" to="566266159"/>
    <trip id="180" depart="180.00" from="599669786#2" to="443816406#0"/>
    <trip id="181" depart="181.00" from="545472768#1" to="621195943#2"/>
    <trip id="182" depart="182.00" from="556417124#0" to="556417118"/>
    <trip id="183" depart="183.00" from="526765531#0" to="-601654031#0"/>
    <trip id="184" depart="184.00" from="300745776#2" to="558689266#0"/>
    <trip id="185" depart="185.00" from="32803886#0" to="-589479624"/>
    <trip id="186" depart="186.00" from="-681882246" to="594827850"/>
    <trip id="187" depart="187.00" from="-702415944#1" to="-581742896#0"/>
    <trip id="188" depart="188.00" from="526765531#0" to="443816463"/>
    <trip id="189" depart="189.00" from="-526751346#2" to="554377918#3"/>
    <trip id="190" depart="190.00" from="-40740606#0" to="351662556#1"/>
    <trip id="191" depart="191.00" from="300746713" to="26399638#2"/>
    <trip id="192" depart="192.00" from="551186305#2" to="644399891#0"/>
    <trip id="193" depart="193.00" from="-602084295" to="598343935#0"/>
    <trip id="194" depart="194.00" from="603971754#0" to="598430238#3"/>
    <trip id="195" depart="195.00" from="-603546252#0" to="-554903305"/>
    <trip id="196" depart="196.00" from="594827874" to="385510625#0"/>
    <trip id="197" depart="197.00" from="160200271#8" to="-651979189#2"/>
    <trip id="198" depart="198.00" from="631212270" to="686247119#0"/>
    <trip id="199" depart="199.00" from="561713626" to="-581742897#2"/>
    <trip id="200" depart="200.00" from="540716683#4" to="-603453255#6"/>
    <trip id="201" depart="201.00" from="-277512892#1" to="581742901"/>
    <trip id="202" depart="202.00" from="617730595" to="194422549#1"/>
    <trip id="203" depart="203.00" from="443816428#0" to="558398007#0"/>
    <trip id="204" depart="204.00" from="-651979190#1" to="-40970790#2"/>
    <trip id="205" depart="205.00" from="-540409028" to="-581758400#1"/>
    <trip id="206" depart="206.00" from="138994198#0" to="300746716#1"/>
    <trip id="207" depart="207.00" from="-746320703#2" to="558398007#2"/>
    <trip id="208" depart="208.00" from="-217853179#2" to="554377918#9"/>
    <trip id="209" depart="209.00" from="539946900#3" to="-566266170#1"/>
    <trip id="210" depart="210.00" from="-540432824#3" to="743625753#0"/>
    <trip id="211" depart="211.00" from="-571515236#2" to="189013559#0"/>
    <trip id="212" depart="212.00" from="-541331025" to="-189023845"/>
    <trip id="213" depart="213.00" from="189023845" to="-541685508"/>
    <trip id="214" depart="214.00" from="154089977#0" to="431950599#3"/>
    <trip id="215" depart="215.00" from="599669749#4" to="598109292#0"/>
    <trip id="216" depart="216.00" from="594827850" to="32803886#0"/>
    <trip id="217" depart="217.00" from="580009229#3" to="-194566391#0"/>
    <trip id="218" depart="218.00" from="188219974#0" to="558689267#0"/>
    <trip id="219" depart="219.00" from="560443102#0" to="558512739"/>
    <trip id="220" depart="220.00" from="554506011#1" to="558250871#0"/>
    <trip id="221" depart="221.00" from="558682948#1" to="628183998#0"/>
    <trip id="222" depart="222.00" from="-552614806#1" to="-526765531#0"/>
    <trip id="223" depart="223.00" from="-743595740" to="-571698887#1"/>
    <trip id="224" depart="224.00" from="555208503#0" to="746320703#2"/>
    <trip id="225" depart="225.00" from="-526751346#8" to="-746288821"/>
    <trip id="226" depart="226.00" from="-188209345#0" to="548986802#1"/>
    <trip id="227" depart="227.00" from="-593868411#0" to="-603189931#2"/>
    <trip id="228" depart="228.00" from="599339670#0" to="595157346#2"/>
    <trip id="229" depart="229.00" from="-540432838#1" to="-160191276#0"/>
    <trip id="230" depart="230.00" from="-258739001#0" to="628183998#0"/>
    <trip id="231" depart="231.00" from="706659334" to="554028148#0"/>
    <trip id="232" depart="232.00" from="-537055395#6" to="565741660#1"/>
    <trip id="233" depart="233.00" from="-594827875" to="680645407"/>
    <trip id="234" depart="234.00" from="-589626882#0" to="-541331025"/>
    <trip id="235" depart="235.00" from="651853578#7" to="-610246800"/>
    <trip id="236" depart="236.00" from="663505408" to="-696880041#0"/>
    <trip id="237" depart="237.00" from="598343927" to="702415940"/>
    <trip id="238" depart="238.00" from="176022798" to="576955081"/>
    <trip id="239" depart="239.00" from="556302734#0" to="39468502#1"/>
    <trip id="240" depart="240.00" from="702415930#0" to="-702415879#0"/>
    <trip id="241" depart="241.00" from="540409027" to="607890262#0"/>
    <trip id="242" depart="242.00" from="300745777#0" to="300746713"/>
    <trip id="243" depart="243.00" from="189013558#2" to="550137446#2"/>
    <trip id="244" depart="244.00" from="-224705407" to="-608047746#1"/>
    <trip id="245" depart="245.00" from="-189011410#1" to="558398007#4"/>
    <trip id="246" depart="246.00" from="733931412" to="188224839#0"/>
    <trip id="247" depart="247.00" from="-610246800" to="-741889706#0"/>
    <trip id="248" depart="248.00" from="300745776#3" to="526765531#2"/>
    <trip id="249" depart="249.00" from="621195943#2" to="-610246800"/>
    <trip id="250" depart="250.00" from="189013569#1" to="621195943#4"/>
    <trip id="251" depart="251.00" from="603453255#2" to="554377918#1"/>
    <trip id="252" depart="252.00" from="-553641449" to="-594827874"/>
    <trip id="253" depart="253.00" from="603189959" to="670447380#2"/>
    <trip id="254" depart="254.00" from="-443816450#3" to="594827872#1"/>
    <trip id="255" depart="255.00" from="547250419#1" to="-537116107#0"/>
    <trip id="256" depart="256.00" from="-40970785#0" to="594827875"/>
    <trip id="257" depart="257.00" from="570310647#2" to="598343936#2"/>
    <trip id="258" depart="258.00" from="-605123651" to="601230400#0"/>
    <trip id="259" depart="259.00" from="-580009229#3" to="589367476#1"/>
    <trip id="260" depart="260.00" from="651979184#2" to="669521095#3"/>
    <trip id="261" depart="261.00" from="601294157#0" to="597237619#2"/>
    <trip id="262" depart="262.00" from="602084171" to="549689927#0"/>
    <trip id="263" depart="263.00" from="-554903298#0" to="646724190#1"/>
    <trip id="264" depart="264.00" from="31740304#0" to="558689267#13"/>
    <trip id="265" depart="265.00" from="564375792" to="556417124#1"/>
    <trip id="266" depart="266.00" from="644563480#2" to="-194422552#0"/>
    <trip id="267" depart="267.00" from="663505435" to="-558250871#1"/>
    <trip id="268" depart="268.00" from="216397531#0" to="687001615#2"/>
    <trip id="269" depart="269.00" from="-540716669#1" to="-475911654#1"/>
    <trip id="270" depart="270.00" from="184689837" to="138994198#3"/>
    <trip id="271" depart="271.00" from="121014197#0" to="-561713618#2"/>
    <trip id="272" depart="272.00" from="-558398011" to="557947905#3"/>
    <trip id="273" depart="273.00" from="175588694#1" to="26402545#0"/>
    <trip id="274" depart="274.00" from="-39727363#3" to="554506011#1"/>
    <trip id="275" depart="275.00" from="557684586#0" to="553551009#3"/>
    <trip id="276" depart="276.00" from="558682949#1" to="550660508"/>
    <trip id="277" depart="277.00" from="189013558#1" to="385032674"/>
    <trip id="278" depart="278.00" from="602084139" to="-558512740#0"/>
    <trip id="279" depart="279.00" from="556421924" to="443628792#0"/>
    <trip id="280" depart="280.00" from="667403159#2" to="596468250#1"/>
    <trip id="281" depart="281.00" from="-604675619" to="-651979191#2"/>
    <trip id="282" depart="282.00" from="26402545#0" to="743601132#1"/>
    <trip id="283" depart="283.00" from="526751346#5" to="597813365"/>
    <trip id="284" depart="284.00" from="678881538" to="-537055377"/>
    <trip id="285" depart="285.00" from="175868077#0" to="563029797#0"/>
    <trip id="286" depart="286.00" from="602094473#1" to="210719311#0"/>
    <trip id="287" depart="287.00" from="551186308#0" to="-558679181"/>
    <trip id="288" depart="288.00" from="300746713" to="681882250#2"/>
    <trip id="289" depart="289.00" from="475911639#2" to="-548365182"/>
    <trip id="290" depart="290.00" from="-541503863#2" to="-609097017#0"/>
    <trip id="291" depart="291.00" from="-609218371" to="598343936#2"/>
    <trip id="292" depart="292.00" from="217382397#0" to="547077866#0"/>
    <trip id="293" depart="293.00" from="-539818679#5" to="609470782"/>
    <trip id="294" depart="294.00" from="558512740#0" to="-603204808#1"/>
    <trip id="295" depart="295.00" from="-549742995" to="-603204846"/>
    <trip id="296" depart="296.00" from="-561713626" to="-633834202"/>
    <trip id="297" depart="297.00" from="686659845#0" to="603971742#1"/>
    <trip id="298" depart="298.00" from="541331023#2" to="-258743271#1"/>
    <trip id="299" depart="299.00" from="526765525" to="743592734"/>
    <trip id="300" depart="300.00" from="-594827884" to="-599669733#2"/>
    <trip id="301" depart="301.00" from="-606767390#6" to="621195943#3"/>
    <trip id="302" depart="302.00" from="-571515218#3" to="570678817"/>
    <trip id="303" depart="303.00" from="-686659845#1" to="546352430#0"/>
    <trip id="304" depart="304.00" from="-558512740#0" to="-646724190#1"/>
    <trip id="305" depart="305.00" from="549158783#4" to="-702415929#0"/>
    <trip id="306" depart="306.00" from="549689932" to="603189916#3"/>
    <trip id="307" depart="307.00" from="-743601136#1" to="-702415944#1"/>
    <trip id="308" depart="308.00" from="-594827884" to="-558950884"/>
    <trip id="309" depart="309.00" from="-194252607" to="526751344#11"/>
    <trip id="310" depart="310.00" from="-558398014" to="-633842553"/>
    <trip id="311" depart="311.00" from="548984852#7" to="-644399884"/>
    <trip id="312" depart="312.00" from="557684587" to="548993008"/>
    <trip id="313" depart="313.00" from="581742901" to="651979184#2"/>
    <trip id="314" depart="314.00" from="716704170#2" to="611477463#4"/>
    <trip id="315" depart="315.00" from="-702415942#0" to="651979189#1"/>
    <trip id="316" depart="316.00" from="-558512740#1" to="-248209832#0"/>
    <trip id="317" depart="317.00" from="443628793" to="603971743"/>
    <trip id="318" depart="318.00" from="-31768650#3" to="702415947#1"/>
    <trip id="319" depart="319.00" from="392558768" to="561713629#8"/>
    <trip id="320" depart="320.00" from="644563480#0" to="-651979190#1"/>
    <trip id="321" depart="321.00" from="602084138#2" to="647405880"/>
    <trip id="322" depart="322.00" from="-41749416" to="663505408"/>
    <trip id="323" depart="323.00" from="136546365#1" to="-561713629#8"/>
    <trip id="324" depart="324.00" from="-540409026#0" to="282677002#1"/>
    <trip id="325" depart="325.00" from="555208503#1" to="570678817"/>
    <trip id="326" depart="326.00" from="609470789" to="-548984860#1"/>
    <trip id="327" depart="327.00" from="603971737" to="189013568#1"/>
    <trip id="328" depart="328.00" from="176024449#0" to="-644572692"/>
    <trip id="329" depart="329.00" from="540409031" to="-549689927#0"/>
    <trip id="330" depart="330.00" from="-160200271#11" to="547077862#2"/>
    <trip id="331" depart="331.00" from="603204851#2" to="-549689923#0"/>
    <trip id="332" depart="332.00" from="443816426#0" to="-651979187#0"/>
    <trip id="333" depart="333.00" from="-443816433" to="-549354517#0"/>
    <trip id="334" depart="334.00" from="746320703#2" to="-558689267#0"/>
    <trip id="335" depart="335.00" from="-599669751#1" to="-605123651"/>
    <trip id="336" depart="336.00" from="548646551#2" to="558398013#2"/>
    <trip id="337" depart="337.00" from="194254896#1" to="651979192#0"/>
    <trip id="338" depart="338.00" from="300745777#0" to="535890914"/>
    <trip id="339" depart="339.00" from="548984851" to="-541503863#2"/>
    <trip id="340" depart="340.00" from="-605127373#1" to="217382398#0"/>
    <trip id="341" depart="341.00" from="217853194#3" to="-633834199"/>
    <trip id="342" depart="342.00" from="-540409021" to="-31768650#2"/>
    <trip id="343" depart="343.00" from="547083821#3" to="-220705407"/>
    <trip id="344" depart="344.00" from="680645407" to="540394423#1"/>
    <trip id="345" depart="345.00" from="558676975#0" to="556302727"/>
    <trip id="346" depart="346.00" from="32803886#1" to="-558398013#1"/>
    <trip id="347" depart="347.00" from="743601139#0" to="392559551"/>
    <trip id="348" depart="348.00" from="571515222#1" to="-565741671"/>
    <trip id="349" depart="349.00" from="646806486" to="556408887#2"/>
    <trip id="350" depart="350.00" from="-549158783#1" to="545472768#0"/>
    <trip id="351" depart="351.00" from="595157346#2" to="-643560378"/>
    <trip id="352" depart="352.00" from="-663505435" to="178457275"/>
    <trip id="353" depart="353.00" from="-526765531#2" to="565642982#0"/>
    <trip id="354" depart="354.00" from="537055380" to="540409031"/>
    <trip id="355" depart="355.00" from="676292370#3" to="-602084140"/>
    <trip id="356" depart="356.00" from="431950598#0" to="546352422#2"/>
    <trip id="357" depart="357.00" from="-549354128#1" to="-599669751#0"/>
    <trip id="358" depart="358.00" from="548984856#2" to="529618564#1"/>
    <trip id="359" depart="359.00" from="548992993#2" to="593868411#0"/>
    <trip id="360" depart="360.00" from="553551001#2" to="-594412642"/>
    <trip id="361" depart="361.00" from="154089977#0" to="597813365"/>
    <trip id="362" depart="362.00" from="-702415941" to="-599669757"/>
    <trip id="363" depart="363.00" from="678876646" to="732057195#2"/>
    <trip id="364" depart="364.00" from="-31768650#3" to="558398113#1"/>
    <trip id="365" depart="365.00" from="558682948#1" to="-558398016#2"/>
    <trip id="366" depart="366.00" from="686247118#1" to="556421925#1"/>
    <trip id="367" depart="367.00" from="26402545#0" to="-589479627#0"/>
    <trip id="368" depart="368.00" from="-540397310#0" to="-537116103#1"/>
    <trip id="369" depart="369.00" from="-603714618" to="-551052654#2"/>
    <trip id="370" depart="370.00" from="558398007#4" to="-644563484#0"/>
    <trip id="371" depart="371.00" from="609470775" to="554903291#2"/>
    <trip id="372" depart="372.00" from="40881222" to="-685649231"/>
    <trip id="373" depart="373.00" from="-558679206" to="699162889#3"/>
    <trip id="374" depart="374.00" from="-176022799" to="-217853179#2"/>
    <trip id="375" depart="375.00" from="558679183" to="599339670#1"/>
    <trip id="376" depart="376.00" from="540432824#3" to="589367481"/>
    <trip id="377" depart="377.00" from="392562026#0" to="553673310"/>
    <trip id="378" depart="378.00" from="743601136#1" to="676292370#4"/>
    <trip id="379" depart="379.00" from="-591596891#3" to="540716679"/>
    <trip id="380" depart="380.00" from="556408886#0" to="189023845"/>
    <trip id="381" depart="381.00" from="475911654#1" to="-702415929#1"/>
    <trip id="382" depart="382.00" from="154089062#2" to="188224839#1"/>
    <trip id="383" depart="383.00" from="548989047#1" to="591600454#1"/>
    <trip id="384" depart="384.00" from="-554903289#5" to="540716668#1"/>
    <trip id="385" depart="385.00" from="-40970792#1" to="-743601146#1"/>
    <trip id="386" depart="386.00" from="-589626881" to="712906106"/>
    <trip id="387" depart="387.00" from="603546264#0" to="-175679662"/>
    <trip id="388" depart="388.00" from="741889706#0" to="-541331025"/>
    <trip id="389" depart="389.00" from="175868077#0" to="609096995#1"/>
    <trip id="390" depart="390.00" from="-351662556#1" to="-39468503#1"/>
    <trip id="391" depart="391.00" from="681848877#0" to="610239580#1"/>
    <trip id="392" depart="392.00" from="-561713616#2" to="-594827850"/>
    <trip id="393" depart="393.00" from="571515219" to="605127347"/>
    <trip id="394" depart="394.00" from="683359599#2" to="258743271#3"/>
    <trip id="395" depart="395.00" from="591600454#1" to="558398012"/>
    <trip id="396" depart="396.00" from="-595157361" to="564713193"/>
    <trip id="397" depart="397.00" from="-603971737" to="-658496099#1"/>
    <trip id="398" depart="398.00" from="443639797#3" to="176024442#1"/>
    <trip id="399" depart="399.00" from="552579023#2" to="-217853179#0"/>
    <trip id="400" depart="400.00" from="-540394423#0" to="746320702#1"/>
    <trip id="401" depart="401.00" from="651979187#0" to="554903305"/>
    <trip id="402" depart="402.00" from="40190298#2" to="550660508"/>
    <trip id="403" depart="403.00" from="138994198#0" to="558398007#4"/>
    <trip id="404" depart="404.00" from="176024449#0" to="702415903"/>
    <trip id="405" depart="405.00" from="-566266170#1" to="551922543#1"/>
    <trip id="406" depart="406.00" from="-610246800" to="-542450794"/>